  Page 1                                    Wed Mar 19 15:58:45 2025

  ******************************************************************
  *                           E P A N E T                          *
  *                   Hydraulic and Water Quality                  *
  *                   Analysis for Pipe Networks                   *
  *                         Version 2.2                            *
  ******************************************************************
  
  Analysis begun Wed Mar 19 15:58:45 2025

  Analysis ended Wed Mar 19 15:58:45 2025
