  Page 1                                    Mon Mar 17 13:42:58 2025

  ******************************************************************
  *                           E P A N E T                          *
  *                   Hydraulic and Water Quality                  *
  *                   Analysis for Pipe Networks                   *
  *                         Version 2.00.12                        *
  ******************************************************************
  
  Analysis begun Mon Mar 17 13:42:58 2025

  Analysis ended Mon Mar 17 13:42:58 2025
