  Page 1                                    Wed Mar 19 15:08:43 2025

  ******************************************************************
  *                           E P A N E T                          *
  *                   Hydraulic and Water Quality                  *
  *                   Analysis for Pipe Networks                   *
  *                         Version 2.00.12                        *
  ******************************************************************
  
  Analysis begun Wed Mar 19 15:08:43 2025

  Analysis ended Wed Mar 19 15:08:43 2025
