  Page 1                                    Tue Jul 05 10:38:48 2022

  ******************************************************************
  *                           E P A N E T                          *
  *                   Hydraulic and Water Quality                  *
  *                   Analysis for Pipe Networks                   *
  *                         Version 2.00.12                        *
  ******************************************************************
  
  Analysis begun Tue Jul 05 10:38:48 2022

  Analysis ended Tue Jul 05 10:38:48 2022
